Version 4
SHEET 1 4540 1000
WIRE 1872 -224 1840 -224
WIRE 2016 -224 1952 -224
WIRE 2032 -224 2016 -224
WIRE 2016 -176 2016 -224
WIRE 1648 -144 1344 -144
WIRE 1840 -144 1840 -224
WIRE 1888 -144 1840 -144
WIRE 1968 -144 1952 -144
WIRE 1344 -112 1344 -144
WIRE 2112 -112 2112 -224
WIRE 2144 -112 2112 -112
WIRE 2240 -112 2224 -112
WIRE 2688 -112 2656 -112
WIRE 2800 -112 2768 -112
WIRE 2848 -112 2800 -112
WIRE 2944 -112 2912 -112
WIRE 1728 -80 1728 -144
WIRE 2656 -80 2656 -112
WIRE 1696 -32 1680 -32
WIRE 1792 -32 1776 -32
WIRE 1840 -32 1840 -144
WIRE 1840 -32 1792 -32
WIRE 1856 -32 1840 -32
WIRE 2800 -32 2800 -112
WIRE 2832 -32 2800 -32
WIRE 2944 -32 2944 -112
WIRE 2944 -32 2912 -32
WIRE 1680 -16 1680 -32
WIRE 1968 -16 1968 -144
WIRE 1968 -16 1920 -16
WIRE 2016 -16 2016 -112
WIRE 2016 -16 1968 -16
WIRE 2112 -16 2112 -112
WIRE 2144 -16 2112 -16
WIRE 2240 -16 2240 -112
WIRE 2240 -16 2208 -16
WIRE 1856 0 1824 0
WIRE 1040 16 1040 0
WIRE 1200 16 1200 0
WIRE 2016 16 2016 -16
WIRE 1824 96 1824 80
WIRE 2800 96 2800 -32
WIRE 2832 96 2800 96
WIRE 2112 112 2112 -16
WIRE 2144 112 2112 112
WIRE 2944 112 2944 -32
WIRE 2944 112 2896 112
WIRE 3008 112 2944 112
WIRE 496 128 496 80
WIRE 832 128 832 80
WIRE 2240 128 2240 -16
WIRE 2240 128 2208 128
WIRE 2272 128 2240 128
WIRE 2368 128 2352 128
WIRE 2400 128 2368 128
WIRE 2496 128 2480 128
WIRE 2528 128 2496 128
WIRE 2624 128 2608 128
WIRE 2656 128 2624 128
WIRE 2752 128 2736 128
WIRE 2832 128 2752 128
WIRE 1792 144 1792 -32
WIRE 1872 144 1792 144
WIRE 1984 144 1952 144
WIRE 2016 144 2016 80
WIRE 2016 144 1984 144
WIRE 2048 144 2016 144
WIRE 2144 144 2128 144
WIRE 2368 144 2368 128
WIRE 2496 144 2496 128
WIRE 2624 144 2624 128
WIRE 2752 144 2752 128
WIRE 2368 224 2368 208
WIRE 2496 224 2496 208
WIRE 2624 224 2624 208
WIRE 2752 224 2752 208
WIRE 1872 240 1840 240
WIRE 1984 240 1984 144
WIRE 1984 240 1952 240
WIRE 1840 336 1840 240
WIRE 1888 336 1840 336
WIRE 1984 336 1984 240
WIRE 1984 336 1952 336
WIRE 1840 352 1840 336
FLAG 1040 16 0
FLAG 1200 16 0
FLAG 1040 -80 Vp12
FLAG 1200 -80 Vm12
FLAG 496 128 0
FLAG 496 0 INPUT
FLAG 1888 -48 Vp12
FLAG 1888 16 Vm12
FLAG 1680 -16 0
FLAG 1824 96 0
FLAG 1840 352 0
FLAG 832 128 0
FLAG 832 0 ENVIN
FLAG 1344 -32 0
FLAG 2176 160 Vm12
FLAG 2176 96 Vp12
FLAG 2368 224 0
FLAG 2496 224 0
FLAG 2624 224 0
FLAG 2752 224 0
FLAG 2864 80 Vp12
FLAG 2864 144 Vm12
FLAG 2656 -80 0
FLAG 1344 -144 INWITHENV
FLAG 3008 112 ENVOUT
SYMBOL voltage 1040 -96 R0
SYMATTR InstName V1
SYMATTR Value 12
SYMBOL voltage 1200 -96 R0
WINDOW 123 0 0 Left 2
WINDOW 39 0 0 Left 2
SYMATTR InstName V2
SYMATTR Value -12
SYMBOL voltage 496 -16 R0
WINDOW 123 24 124 Left 2
WINDOW 39 0 0 Left 2
WINDOW 3 24 152 Left 2
SYMATTR Value2 AC 5 0
SYMATTR InstName V3
SYMATTR Value SINE(0 5 150 0 0 0)
SYMBOL TL074 1888 -80 R0
WINDOW 3 20 124 Left 2
SYMATTR InstName U1
SYMBOL res 1744 -160 R90
WINDOW 0 0 56 VBottom 2
WINDOW 3 32 56 VTop 2
SYMATTR InstName R1
SYMATTR Value 82k
SYMBOL potentiometer 1792 -16 M270
WINDOW 3 -29 281 VLeft 2
SYMATTR InstName U2
SYMATTR Value Rtot=100K wiper={wp}
SYMBOL res 1808 -16 R0
SYMATTR InstName R2
SYMATTR Value 39k
SYMBOL res 1968 -240 R90
WINDOW 0 0 56 VBottom 2
WINDOW 3 32 56 VTop 2
SYMATTR InstName R3
SYMATTR Value 100k
SYMBOL cap 1952 -160 R90
WINDOW 0 0 32 VBottom 2
WINDOW 3 32 32 VTop 2
SYMATTR InstName C1
SYMATTR Value 20p
SYMBOL diode 2000 -176 R0
SYMATTR InstName D1
SYMBOL diode 2000 16 R0
SYMATTR InstName D2
SYMBOL res 1968 128 R90
WINDOW 0 0 56 VBottom 2
WINDOW 3 32 56 VTop 2
SYMATTR InstName R4
SYMATTR Value 100k
SYMBOL res 1968 224 R90
WINDOW 0 0 56 VBottom 2
WINDOW 3 32 56 VTop 2
SYMATTR InstName R5
SYMATTR Value 100k
SYMBOL cap 1952 320 R90
WINDOW 0 0 32 VBottom 2
WINDOW 3 32 32 VTop 2
SYMATTR InstName C2
SYMATTR Value 20p
SYMBOL voltage 832 -16 R0
WINDOW 123 24 124 Left 2
WINDOW 39 0 0 Left 2
WINDOW 3 24 152 Left 2
SYMATTR Value2 AC 5 0
SYMATTR InstName V4
SYMATTR Value PULSE(0 8 0 1 0.001 0.001 1)
SYMBOL bv 1344 -128 R0
SYMATTR InstName B1
SYMATTR Value V=V(input)*V(envin)/8
SYMBOL TL074 2176 64 R0
WINDOW 3 20 124 Left 2
SYMATTR InstName U3
SYMBOL res 2144 128 R90
WINDOW 0 0 56 VBottom 2
WINDOW 3 32 56 VTop 2
SYMATTR InstName R6
SYMATTR Value 120k
SYMBOL cap 2208 -32 R90
WINDOW 0 0 32 VBottom 2
WINDOW 3 32 32 VTop 2
SYMATTR InstName C3
SYMATTR Value 20p
SYMBOL res 2240 -128 R90
WINDOW 0 0 56 VBottom 2
WINDOW 3 32 56 VTop 2
SYMATTR InstName R7
SYMATTR Value 100k
SYMBOL res 2128 -240 R90
WINDOW 0 0 56 VBottom 2
WINDOW 3 32 56 VTop 2
SYMATTR InstName R8
SYMATTR Value 100k
SYMBOL res 2368 112 R90
WINDOW 0 0 56 VBottom 2
WINDOW 3 32 56 VTop 2
SYMATTR InstName R9
SYMATTR Value 2.7k
SYMBOL cap 2352 144 R0
SYMATTR InstName C4
SYMATTR Value 1µ
SYMBOL res 2496 112 R90
WINDOW 0 0 56 VBottom 2
WINDOW 3 32 56 VTop 2
SYMATTR InstName R10
SYMATTR Value 27k
SYMBOL cap 2480 144 R0
SYMATTR InstName C5
SYMATTR Value 100n
SYMBOL res 2624 112 R90
WINDOW 0 0 56 VBottom 2
WINDOW 3 32 56 VTop 2
SYMATTR InstName R11
SYMATTR Value 270k
SYMBOL cap 2608 144 R0
SYMATTR InstName C6
SYMATTR Value 10n
SYMBOL res 2752 112 R90
WINDOW 0 0 56 VBottom 2
WINDOW 3 32 56 VTop 2
SYMATTR InstName R12
SYMATTR Value 1Meg
SYMBOL cap 2736 144 R0
SYMATTR InstName C7
SYMATTR Value 2n
SYMBOL TL074 2864 48 R0
WINDOW 3 20 124 Left 2
SYMATTR InstName U4
SYMBOL res 2928 -48 R90
WINDOW 0 0 56 VBottom 2
WINDOW 3 32 56 VTop 2
SYMATTR InstName R13
SYMATTR Value 3Meg
SYMBOL res 2784 -128 R90
WINDOW 0 0 56 VBottom 2
WINDOW 3 32 56 VTop 2
SYMATTR InstName R14
SYMATTR Value 1.5Meg
SYMBOL cap 2912 -128 R90
WINDOW 0 0 32 VBottom 2
WINDOW 3 32 32 VTop 2
SYMATTR InstName C8
SYMATTR Value 1n
TEXT 1006 386 Left 2 !;op
TEXT 1496 88 Left 2 !.param wp=.85
TEXT 1384 152 Left 2 !.tran 0 2 0
TEXT 1440 72 Left 2 !;.step param wp 0 1 .25
